[TITLE]
;;Project Title/Notes

[OPTIONS]
;;Option             Value
FLOW_UNITS           CMS
INFILTRATION         HORTON
FLOW_ROUTING         DYNWAVE
LINK_OFFSETS         DEPTH
MIN_SLOPE            0
ALLOW_PONDING        NO
SKIP_STEADY_STATE    NO

START_DATE           08/23/2013
START_TIME           00:00:00
REPORT_START_DATE    08/23/2013
REPORT_START_TIME    00:00:00
END_DATE             08/23/2013
END_TIME             05:00:00
SWEEP_START          01/01
SWEEP_END            12/31
DRY_DAYS             0
REPORT_STEP          00:05:00
WET_STEP             00:05:00
DRY_STEP             00:05:00
ROUTING_STEP         0:00:30 

INERTIAL_DAMPING     PARTIAL
NORMAL_FLOW_LIMITED  BOTH
FORCE_MAIN_EQUATION  D-W
VARIABLE_STEP        0.75
LENGTHENING_STEP     0
MIN_SURFAREA         1.14
MAX_TRIALS           8
HEAD_TOLERANCE       0.0015
SYS_FLOW_TOL         5
LAT_FLOW_TOL         5

[EVAPORATION]
;;Evap Data      Parameters
;;-------------- ----------------
CONSTANT         0
DRY_ONLY         NO

[RAINGAGES]
;;Gage           Format    Interval SCF      Source    
;;-------------- --------- ------ ------ ----------       

[SUBCATCHMENTS]
;;Subcatchment   Rain Gage        Outlet           Area     %Imperv  Width    %Slope   CurbLen  Snow Pack       
;;-------------- ---------------- ---------------- -------- -------- -------- -------- -------- ----------------    

[INFILTRATION]
;;Subcatchment   MaxRate    MinRate    Decay      DryTime    MaxInfil  
;;-------------- ---------- ---------- ---------- ---------- ----------       

[JUNCTIONS]
;;Junction       Invert     Dmax       Dinit      Dsurch     Aponded   
;;-------------- ---------- ---------- ---------- ---------- ----------
1         8.32         5.51         0         0         0
2         7.09         3.7         0         0         0
3         11.85         4.21         0         0         0
4         14.35         3.65         0         0         0
5         49.14         1.16         0         0         0
6         45.51         2.37         0         0         0
7         43.3         2.33         0         0         0
8         28.62         2.53         0         0         0
9         39.63         2.37         0         0         0
10         30.09         2.02         0         0         0
11         23.67         3.85         0         0         0
12         28.36         1.8         0         0         0
13         35.8         2.1         0         0         0
14         23.3         3.2         0         0         0
15         22.13         3.38         0         0         0
16         24.3         2.75         0         0         0
17         18.46         2.14         0         0         0
18         14.08         2.52         0         0         0
19         11.42         2.84         0         0         0
20         25.54         1.75         0         0         0
21         36.51         2.48         0         0         0
22         24.71         1.67         0         0         0
23         31.7         1.55         0         0         0
24         39.83         1.52         0         0         0
25         44.61         1.62         0         0         0
26         33.81         4.59         0         0         0
27         31.05         4.95         0         0         0
28         28.35         1.62         0         0         0
29         27.4         1.8         0         0         0
30         37.28         1.59         0         0         0
31         26.49         2.33         0         0         0
32         47.75         1.75         0         0         0
33         31.08         1.62         0         0         0
34         46.94         1.51         0         0         0
35         50.63         1.67         0         0         0
36         48.78         1.65         0         0         0
37         47.61         0.85         0         0         0
38         47.53         2.08         0         0         0
39         40.23         1.77         0         0         0
40         10.51         3.9         0         0         0
41         29.62         1.63         0         0         0
42         21.32         5.17         0         0         0
43         9.19         3         0         0         0
44         19.96         4.36         0         0         0
45         18.1         2.9         0         0         0
46         35.65         4.47         0         0         0
47         48.09         1.69         0         0         0
48         17.81         3         0         0         0
49         17.74         6.46         0         0         0
50         16.44         1.87         0         0         0
51         19.74         1.38         0         0         0
52         16.21         2.63         0         0         0
53         40.86         1.4         0         0         0
54         15.61         2.09         0         0         0
55         41.95         0.91         0         0         0
56         37.35         1.52         0         0         0
57         31.04         4.09         0         0         0
58         15.9         2.65         0         0         0
59         37.69         2.13         0         0         0
60         13.83         3.21         0         0         0
61         17.98         3.11         0         0         0
62         15.58         3.28         0         0         0
63         15.51         1.78         0         0         0
64         14.8         2.05         0         0         0
65         33.17         0.99         0         0         0
66         14.19         3.03         0         0         0
67         36.24         1.87         0         0         0
68         15.5         1.37         0         0         0
69         15.49         2.8         0         0         0
70         14.43         1.78         0         0         0
71         13.57         3.1         0         0         0
72         13.4         1.5         0         0         0
73         24.5         1.84         0         0         0
74         11.93         2.28         0         0         0
75         23.09         1.96         0         0         0
76         29.32         1.47         0         0         0
77         24.05         1.94         0         0         0
78         50.96         1.32         0         0         0
79         40.26         2.07         0         0         0
80         40.84         1.22         0         0         0
81         14.86         1.37         0         0         0
82         15.42         0.9         0         0         0
83         12.05         2.2         0         0         0
84         14.27         1.35         0         0         0
85         34.63         1.99         0         0         0
86         31.71         1.98         0         0         0
87         38.47         1.6         0         0         0
88         36.68         1.53         0         0         0
89         35.08         1.61         0         0         0
90         31.57         1.67         0         0         0
91         33.52         1.55         0         0         0
92         29.5         1.8         0         0         0
93         12.38         1.97         0         0         0
94         38.89         1.29         0         0         0
95         14.04         2.62         0         0         0
96         15.82         0.9         0         0         0
97         31.39         1.62         0         0         0
98         13.29         2.28         0         0         0
99         13.97         1.29         0         0         0
100         30.8         1.82         0         0         0
101         29.2         1.6         0         0         0
102         32.49         1.95         0         0         0
103         12.15         2.44         0         0         0
104         29.42         1.15         0         0         0
105         11.44         2.92         0         0         0
106         31.3         1.09         0         0         0
107         11.72         2.17         0         0         0
108         26.48         2.56         0         0         0
109         26.09         2.45         0         0         0
110         24.19         2.2         0         0         0
111         22.57         2.13         0         0         0
112         27.51         1.77         0         0         0
113         10.53         2.67         0         0         0
114         42.86         1.61         0         0         0
115         9.87         2.75         0         0         0
116         9.7         2.45         0         0         0
117         31.86         1.29         0         0         0
118         27.43         2.12         0         0         0
119         10.6         1.67         0         0         0
120         30.54         1.44         0         0         0
121         23.86         1.84         0         0         0
122         9.5         2.77         0         0         0
123         26.71         1.85         0         0         0
124         21.88         1.92         0         0         0
125         13.75         1.61         0         0         0
126         27.64         1.47         0         0         0
127         18.05         1.9         0         0         0
128         14.35         1.6         0         0         0
129         33.71         1.35         0         0         0
130         25.72         2.68         0         0         0
131         28.56         1.54         0         0         0
132         26.1         1.6         0         0         0
133         11.42         3.52         0         0         0
134         9         4.4         0         0         0
135         24.77         1.7         0         0         0
136         42.74         2.24         0         0         0
137         49.99         1.48         0         0         0
138         45.39         1.41         0         0         0
139         15.76         1.42         0         0         0
140         17.02         1.1         0         0         0
141         16.5         1.25         0         0         0
142         33.57         1.71         0         0         0
143         38.14         2.29         0         0         0
144         11.95         2.4         0         0         0
145         22.75         2.25         0         0         0
146         33.05         1.22         0         0         0
147         28.12         1.49         0         0         0
148         27.71         1.97         0         0         0
149         22.36         1.29         0         0         0
150         18.08         1.44         0         0         0
151         46.95         1.12         0         0         0
152         16.55         3.16         0         0         0
153         16.9         1.6         0         0         0
154         27.44         2.08         0         0         0
155         42.14         1.47         0         0         0
156         12.29         2.33         0         0         0
157         25.04         3.21         0         0         0
158         40         1.77         0         0         0
159         8.89         3.2         0         0         0
160         14.03         1.95         0         0         0
161         18.42         3.13         0         0         0
162         8.53         3.3         0         0         0
163         26.62         1.43         0         0         0
164         28.52         1.54         0         0         0
165         44.74         1.4         0         0         0
166         8.3         4.55         0         0         0
167         8.22         4.36         0         0         0
168         34.37         1.32         0         0         0
169         27.7         1.9         0         0         0
170         14.11         1.88         0         0         0
171         12.75         1.9         0         0         0
172         12.63         2         0         0         0
173         27         1.8         0         0         0
174         8.21         4.39         0         0         0
175         28.41         1.58         0         0         0
176         44.88         2.53         0         0         0
177         28.12         1.52         0         0         0
178         8.17         4.43         0         0         0
179         26.01         1.82         0         0         0
180         7.48         4.6         0         0         0
181         10.93         1.53         0         0         0
182         11.9         1.43         0         0         0
183         21.74         3.51         0         0         0
184         10.85         1.16         0         0         0
185         27.06         2.35         0         0         0
186         26.46         1.68         0         0         0
187         23.92         3.55         0         0         0
188         28.58         1.4         0         0         0
189         28.09         1.7         0         0         0
190         23.15         1.21         0         0         0
191         25.34         1.6         0         0         0
192         11.81         1.88         0         0         0
193         11.07         1.71         0         0         0
194         24.13         1.99         0         0         0
195         20.5         2.82         0         0         0
196         41.84         1.37         0         0         0
197         29.98         1.33         0         0         0
198         24.35         1.25         0         0         0
199         28.02         1.63         0         0         0
200         16.95         1.49         0         0         0
201         20.4         1.6         0         0         0
202         16.63         2.19         0         0         0
203         29.88         1.09         0         0         0
204         29.74         1.56         0         0         0
205         20.12         1.61         0         0         0
206         18.73         1.42         0         0         0
207         21.86         1.25         0         0         0
208         11.67         1.85         0         0         0
209         23.51         1.33         0         0         0
210         24.63         1.82         0         0         0
211         25.14         1.85         0         0         0
212         23.84         3.01         0         0         0
213         7.4         3.68         0         0         0
214         29.1         1.6         0         0         0
215         24.24         1.95         0         0         0
216         22.62         3.9         0         0         0
217         15.41         1.55         0         0         0
218         7.08         6.66         0         0         0
219         22.43         1.57         0         0         0
220         25.74         1.79         0         0         0
221         19.93         1.85         0         0         0
222         21.35         1.58         0         0         0
223         46.44         2.34         0         0         0
224         49.7         1.4         0         0         0
225         19.36         1.93         0         0         0
226         39.86         2.32         0         0         0
227         23.58         2.77         0         0         0
228         13.36         1.84         0         0         0
229         18.15         2.7         0         0         0
230         27.32         1.64         0         0         0
231         22.67         1.79         0         0         0
232         12.01         2.27         0         0         0
233         22.88         1.69         0         0         0
234         20.6         2.66         0         0         0
235         11.55         2.44         0         0         0
236         30.78         1.51         0         0         0
237         36.13         2.49         0         0         0
238         17.63         1.71         0         0         0
239         16.22         2.35         0         0         0
240         19.78         1.72         0         0         0
241         59.6         1.44         0         0         0
242         18.32         3.28         0         0         0
243         49.11         1.41         0         0         0
244         14.84         1.84         0         0         0
245         28.6         1.18         0         0         0
246         26.49         1.51         0         0         0
247         17.27         1.75         0         0         0
248         50.71         1.64         0         0         0
249         16.02         2.69         0         0         0
250         19.9         1.53         0         0         0
251         36.55         1.54         0         0         0
252         13.03         1.82         0         0         0
253         14.9         1.63         0         0         0
254         13.45         1.34         0         0         0
255         43.53         1.91         0         0         0
256         30.46         2.19         0         0         0
257         12.8         1.82         0         0         0
258         12.63         1.7         0         0         0
259         18.4         1.81         0         0         0
260         33.72         2.05         0         0         0
261         11.43         1.33         0         0         0
262         46.64         1.94         0         0         0
263         59.88         0.85         0         0         0
264         30.8         1.66         0         0         0
265         59.05         1.2         0         0         0
266         53.09         2.27         0         0         0
267         43.25         1.74         0         0         0
268         25.36         1.51         0         0         0
269         22.17         1.35         0         0         0
270         36.32         1.98         0         0         0
271         28.59         1.32         0         0         0
272         28.41         1.39         0         0         0
273         10.99         1.32         0         0         0
274         18.31         1.5         0         0         0
275         13.72         1.75         0         0         0
276         30.43         1.4         0         0         0
277         28.41         1.43         0         0         0
278         28.72         1.63         0         0         0
279         33.26         1.3         0         0         0
280         33.24         1.33         0         0         0
281         27.63         2         0         0         0
282         33.1         1.53         0         0         0
283         25.81         2.01         0         0         0
284         34.81         2.43         0         0         0
285         27.71         1.93         0         0         0
286         30.06         1.4         0         0         0
287         15.19         1.53         0         0         0
288         11.99         1.53         0         0         0
289         17.65         1.96         0         0         0
290         25.77         1.3         0         0         0
291         11.51         1.57         0         0         0
292         22.09         2.53         0         0         0
293         11.98         1.22         0         0         0
294         20.9         2.24         0         0         0
295         23.65         2.04         0         0         0
296         24.01         1.4         0         0         0
297         17.13         1.77         0         0         0
298         42         1.72         0         0         0
299         29.54         2.58         0         0         0
300         42.96         1.17         0         0         0
301         24.07         1.3         0         0         0
302         22.96         1.46         0         0         0
303         19.45         2.97         0         0         0
304         27.6         2.1         0         0         0
305         26.34         2.3         0         0         0
306         16.51         1.72         0         0         0
307         51.5         1.39         0         0         0
308         46.67         1.28         0         0         0
309         9.49         1.59         0         0         0
310         25.8         1.11         0         0         0
311         20.43         1.96         0         0         0
312         12.47         2.02         0         0         0
313         12.57         1.87         0         0         0
314         24.64         2.4         0         0         0
315         18.38         1.86         0         0         0
316         16.51         2.28         0         0         0
317         22.3         3.82         0         0         0
318         35.19         1.16         0         0         0
319         26.14         1.71         0         0         0
320         20.11         1.39         0         0         0
321         23.49         1.6         0         0         0
322         32.9         1.57         0         0         0
323         36.01         0.85         0         0         0
324         28.83         1.55         0         0         0
325         30.58         2.56         0         0         0
326         27.73         1.74         0         0         0
327         35.33         2.05         0         0         0
328         15.68         2.11         0         0         0
329         20.81         3.07         0         0         0
330         16.23         3.32         0         0         0
331         26.36         2.17         0         0         0
332         17.83         1.02         0         0         0
333         24.67         1.58         0         0         0
334         17.1         2.51         0         0         0
335         19.94         1.14         0         0         0
336         17.22         3.78         0         0         0
337         17.89         1.95         0         0         0
338         23.25         1.49         0         0         0
339         22.12         1.21         0         0         0
340         37.45         1.55         0         0         0
341         33.84         2.04         0         0         0
342         27.54         3.19         0         0         0
343         18.22         1.92         0         0         0
344         44.11         0.99         0         0         0
345         43.47         1.63         0         0         0
346         30.68         1.95         0         0         0
347         33.02         1.29         0         0         0
348         32.51         1.54         0         0         0
349         29.57         2         0         0         0
350         29.07         1.97         0         0         0
351         28.94         1.59         0         0         0
352         28.8         1.38         0         0         0
353         28.18         2.03         0         0         0
354         28.81         1.35         0         0         0
355         13.24         2.53         0         0         0
356         17.49         1.51         0         0         0
357         26.36         2.42         0         0         0
358         44.6         1.65         0         0         0
359         43.78         2.22         0         0         0
360         37.09         2.29         0         0         0
361         27.95         2.76         0         0         0
362         32.38         3.38         0         0         0
363         18.65         1.29         0         0         0
364         28.27         3.14         0         0         0
365         30.8         2.12         0         0         0
366         16.5         2.68         0         0         0
367         32.9         0.81         0         0         0
368         14.41         3.11         0         0         0
369         29.19         1.88         0         0         0
370         21.93         2.4         0         0         0
371         16         3.08         0         0         0
372         29.9         1.35         0         0         0
373         14.71         3.63         0         0         0
374         32.07         1.73         0         0         0
375         13.7         3.23         0         0         0
376         41.12         1.51         0         0         0
377         25.33         1.5         0         0         0
378         21.68         1.77         0         0         0
379         18.47         1.13         0         0         0
380         18.78         1.58         0         0         0
381         17.29         1.41         0         0         0
382         13.65         3.3         0         0         0
383         15.5         3.11         0         0         0
384         22.31         1.48         0         0         0
385         18.72         1.63         0         0         0
386         24.66         1.23         0         0         0
387         19.65         1.19         0         0         0
388         19.11         1.47         0         0         0
389         17.1         1.5         0         0         0
390         18.61         1         0         0         0
391         29.41         1.66         0         0         0
392         23.3         1.8         0         0         0
393         31.43         1.31         0         0         0
394         15.45         3         0         0         0
395         31.08         1.08         0         0         0
396         24.15         3         0         0         0
397         31.5         1.96         0         0         0
398         32.48         1.63         0         0         0
399         23.8         2.28         0         0         0
400         34.26         2.99         0         0         0
401         26.55         2.36         0         0         0
402         17.58         1.5         0         0         0
403         19.65         2.62         0         0         0
404         19.24         2.42         0         0         0
405         16.48         2.09         0         0         0
406         15.83         1.52         0         0         0
407         16.49         1.6         0         0         0
408         13.34         3.5         0         0         0
409         13.33         3.94         0         0         0
410         13.31         4.1         0         0         0
411         13.33         3.99         0         0         0
412         20.45         2         0         0         0
413         18.64         1.84         0         0         0
414         37.62         1.45         0         0         0
415         43.53         1.2         0         0         0
416         40.18         1.5         0         0         0
417         32.47         2.6         0         0         0
418         33.36         1.58         0         0         0
419         20.26         1.51         0         0         0
420         24.74         2.05         0         0         0
421         32.3         1.49         0         0         0
422         17.58         1.98         0         0         0
423         15.98         1.82         0         0         0
424         25.4         2.12         0         0         0
425         15.3         1.59         0         0         0
426         15.19         1.45         0         0         0
427         27.59         1.55         0         0         0
428         20.09         1.51         0         0         0
429         31.11         1.42         0         0         0
430         25.72         1.57         0         0         0
431         14.92         1.48         0         0         0
432         13.3         3.99         0         0         0
433         18.38         2.2         0         0         0
434         56.53         2.03         0         0         0
435         33.23         2.02         0         0         0
436         17.91         1.61         0         0         0
437         30.17         1.75         0         0         0
438         54.56         1.82         0         0         0
439         27.25         2.85         0         0         0
440         25.47         2.15         0         0         0
441         17.58         1.77         0         0         0
442         47.6         1.3         0         0         0
443         25.06         1.94         0         0         0
444         40.66         1.85         0         0         0
445         52.99         3.76         0         0         0
446         15         3         0         0         0
447         14.5         3.25         0         0         0
448         14.4         3.5         0         0         0
449         17.75         1.48         0         0         0
450         40.77         2.33         0         0         0
451         38.05         1.67         0         0         0
452         30.9         2.61         0         0         0
453         16.78         1.1         0         0         0
454         16.38         1.17         0         0         0
455         38.96         2.64         0         0         0
456         37.13         2.12         0         0         0
457         27.34         3.15         0         0         0
458         17.41         1.6         0         0         0
459         18.09         1.13         0         0         0
460         16.51         1.17         0         0         0
461         49.81         1.33         0         0         0
462         40.89         1.53         0         0         0
463         40.52         1.69         0         0         0
464         14.2         3.38         0         0         0
465         33.54         1.78         0         0         0
466         29.25         2.07         0         0         0
467         24.17         2.61         0         0         0
468         24.5         1.8         0         0         0
469         27.32         1.95         0         0         0