[TITLE]
;;Project Title/Notes

[OPTIONS]
;;Option             Value
FLOW_UNITS           CMS
INFILTRATION         HORTON
FLOW_ROUTING         DYNWAVE
LINK_OFFSETS         DEPTH
MIN_SLOPE            0
ALLOW_PONDING        NO
SKIP_STEADY_STATE    NO

START_DATE           08/23/2013
START_TIME           00:00:00
REPORT_START_DATE    08/23/2013
REPORT_START_TIME    00:00:00
END_DATE             08/23/2013
END_TIME             06:00:00
SWEEP_START          01/01
SWEEP_END            12/31
DRY_DAYS             0
REPORT_STEP          00:10:00
WET_STEP             00:10:00
DRY_STEP             00:10:00
ROUTING_STEP         0:00:30 

INERTIAL_DAMPING     PARTIAL
NORMAL_FLOW_LIMITED  BOTH
FORCE_MAIN_EQUATION  D-W
VARIABLE_STEP        0.75
LENGTHENING_STEP     0
MIN_SURFAREA         1.14
MAX_TRIALS           8
HEAD_TOLERANCE       0.0015
SYS_FLOW_TOL         5
LAT_FLOW_TOL         5

[EVAPORATION]
;;Evap Data      Parameters
;;-------------- ----------------
CONSTANT         0
DRY_ONLY         NO

[RAINGAGES]
;;Gage           Format    Interval SCF      Source    
;;-------------- --------- ------ ------ ----------       
RG01              INTENSITY 0:10     1.0      TIMESERIES RAIN01  

[SUBCATCHMENTS]
;;Subcatchment   Rain Gage        Outlet           Area     %Imperv  Width    %Slope   CurbLen  Snow Pack       
;;-------------- ---------------- ---------------- -------- -------- -------- -------- -------- ----------------    
1	RG01	400	20.25	70.41	2145.05	0.05718	0	0
2	RG01	1020	1.16	100	512.79	0.02455	0	0
3	RG01	417	1.65	97.52	612.05	0.02005	0	0
4	RG01	435	0.84	88.11	436.98	0.02996	0	0
5	RG01	476	1.63	100	609.45	0.02755	0	0
6	RG01	450	2.26	79.57	717.3	0.01358	0	0
7	RG01	8	0.54	100	349.89	0.01547	0	0
8	RG01	437	0.51	41.86	341.17	0.01915	0	0
9	RG01	452	0.87	81.51	444.27	0.03078	0	0
10	RG01	215	0.71	39.09	401.31	0.00863	0	0
11	RG01	185	0.9	64.12	451.08	0.0192	0	0
12	RG01	1055	0.99	87.14	475.05	0.01687	0	0
13	RG01	161	3.58	56.66	902.41	0.00615	0	0
14	RG01	209	0.31	45.14	263.63	0.01164	0	0
15	RG01	188	0.31	100	263.68	0.01124	0	0
16	RG01	189	0.33	100	272.49	0.004992	0	0
17	RG01	440	1.07	90.46	492.52	0.01673	0	0
18	RG01	198	0.55	24.27	354.58	0.01829	0	0
19	RG01	451	0.73	100	406.32	0.01148	0	0
20	RG01	149	0.96	74.41	465.97	0.00421	0	0
21	RG01	219	0.92	47.02	457.85	0.02345	0	0
22	RG01	195	0.8	41.15	426.47	0.01822	0	0
23	RG01	282	0.19	100	208.93	0.02063	0	0
24	RG01	457	2.29	95.07	720.95	0.02177	0	0
25	RG01	1014	1.85	100	647.84	0.009804	0	0
26	RG01	303	0.7	89.63	399.25	0.0097	0	0
27	RG01	221	0.99	47.36	473.79	0.01092	0	0
28	RG01	205	0.27	40	248.9	0.01459	0	0
29	RG01	207	0.64	28.26	381.84	0.02618	0	0
30	RG01	222	0.52	56.48	342.24	0.00819	0	0
31	RG01	225	0.62	57.59	375.93	0.00832	0	0
32	RG01	993	2.16	63.61	701.12	0.01196	0	0
33	RG01	44	0.24	100	233.51	0.01212	0	0
34	RG01	229	0.82	58.71	432.12	0.00828	0	0
35	RG01	29	1.05	71.52	487.7	0.02088	0	0
36	RG01	466	1.17	56.96	515.99	0.0347	0	0
37	RG01	51	0.6	57.68	369.63	0.01775	0	0
38	RG01	465	0.85	77.61	440.68	0.03704	0	0
39	RG01	73	0.84	76.39	437.09	0.01824	0	0
40	RG01	45	0.44	68.85	316.19	0.01321	0	0
41	RG01	474	1.14	100	508.36	0.01532	0	0
42	RG01	48	1.01	100	478.54	0.01258	0	0
43	RG01	75	0.63	76.08	378.58	0.004572	0	0
44	RG01	238	0.53	40	346.01	0.00287	0	0
45	RG01	76	0.6	37.5	367.93	0.02383	0	0
46	RG01	478	0.58	37.02	362.56	0.01255	0	0
47	RG01	77	0.38	62.5	293.9	0.02765	0	0
48	RG01	463	0.08	83.23	133.42	0.0351	0	0
49	RG01	24	0.27	49.47	246.17	0.01937	0	0
50	RG01	247	0.41	100	304.59	0.00919	0	0
51	RG01	297	1.96	44.87	667.25	0.00716	0	0
52	RG01	23	0.5	94.4	336.34	0.02917	0	0
53	RG01	239	3.84	52.72	933.78	0.00341	0	0
54	RG01	499	3.29	100	864.7	0.02412	0	0
55	RG01	469	0.34	79.3	276.36	0.0146	0	0
56	RG01	285	0.81	67.76	429.71	0.02053	0	0
57	RG01	470	0.28	37.5	250.9	0.0209	0	0
58	RG01	467	0.39	37.5	297.45	0.01144	0	0
59	RG01	249	0.48	100	330.27	0.00244	0	0
60	RG01	356	0.1	100	151.99	0.00425	0	0
61	RG01	306	2.05	48.39	681.84	0.00456	0	0
62	RG01	62	2.15	94.49	698.86	0.00559	0	0
63	RG01	766	0.57	66.28	358.68	0.008916	0	0
64	RG01	468	0.19	37.5	209.88	0.0123	0	0
65	RG01	292	1.46	37.5	577.02	0.02777	0	0
66	RG01	320	1.91	100	658.94	0.01878	0	0
67	RG01	296	0.46	37.5	324.62	0.01242	0	0
68	RG01	295	0.39	37.5	297.45	0.01715	0	0
69	RG01	294	1.02	37.5	481.87	0.0298	0	0
70	RG01	990	0.72	100	404.69	0.02212	0	0
71	RG01	338	1.07	97.62	492.75	0.02319	0	0
72	RG01	368	2.74	60.66	788.5	0.00301	0	0
73	RG01	343	0.92	100	456.1	0.00971	0	0
74	RG01	768	0.31	37.5	263.77	0.03704	0	0
75	RG01	489	0.85	84.75	439.8	0.03558	0	0
76	RG01	339	0.42	100	309.8	0.00948	0	0
77	RG01	765	1.17	86.01	516.74	0.0339	0	0
78	RG01	488	0.3	94.63	260.34	0.07595	0	0
79	RG01	301	0.82	78.13	432.52	0.02414	0	0
80	RG01	363	0.55	100	354.79	0.00058	0	0
81	RG01	333	1.76	100	633.23	0.03838	0	0
82	RG01	486	0.65	100	383.47	0.0144	0	0
83	RG01	767	0.52	100	344.82	0.02137	0	0
84	RG01	315	1.17	37.5	515.44	0.01562	0	0
85	RG01	240	1.87	100	651.56	0.02237	0	0
86	RG01	631	0.44	100	317.88	0.00856	0	0
87	RG01	606	1.64	100	611.17	0.06341	0	0
88	RG01	632	0.27	100	245.87	0.00447	0	0
89	RG01	632	1.57	100	597.72	0.01179	0	0
90	RG01	337	7.2	80.88	1279.19	0.008376	0	0
91	RG01	316	0.43	100	313.73	0.01198	0	0
92	RG01	145	1.4	89.2	563.58	0.009228	0	0
93	RG01	603	0.53	100	347.46	0.01359	0	0
94	RG01	443	0.96	44.67	466.45	0.01489	0	0
95	RG01	769	2.62	100	772.25	0.02303	0	0
96	RG01	607	0.41	100	305.74	0.0198	0	0
97	RG01	627	0.15	100	182.41	0.01468	0	0
98	RG01	148	0.44	82.12	314.84	0.007416	0	0
99	RG01	989	0.87	100	445.31	0.00304	0	0
100	RG01	278	0.22	100	222.15	0.01583	0	0
101	RG01	331	0.39	100	297.49	0.01038	0	0
102	RG01	483	3.71	87.4	917.8	0.00183	0	0
103	RG01	481	1.47	67.63	578.71	0.00415	0	0
104	RG01	330	0.57	93.75	360.07	0.004692	0	0
105	RG01	236	1.08	80.61	494.49	0.01686	0	0
106	RG01	626	0.16	100	188.88	0.00032	0	0
107	RG01	759	0.43	100	311.77	0.0031	0	0
108	RG01	52	0.34	85.57	276.5	0.00558	0	0
109	RG01	601	0.55	100	355.11	0.01578	0	0
110	RG01	147	0.46	25	323.26	0.01498	0	0
111	RG01	619	0.96	64.18	466.9	0.01057	0	0
112	RG01	748	0.95	100	465.48	0.00997	0	0
113	RG01	50	0.6	98.52	369.97	0.01374	0	0
114	RG01	140	0.25	50	238.69	0.01025	0	0
115	RG01	146	0.23	25	226.33	0.02533	0	0
116	RG01	150	1.91	72.61	658.48	0.01206	0	0
117	RG01	608	0.17	100	194.23	0.00001	0	0
118	RG01	430	0.7	100	399.66	0.00793	0	0
119	RG01	279	0.11	25	154.68	0.0133	0	0
120	RG01	280	0.12	25	168.37	0.01922	0	0
121	RG01	482	0.55	37.5	353.13	0.00143	0	0
122	RG01	227	3.66	100	912.4	0.02075	0	0
123	RG01	622	0.81	100	430.32	0.01077	0	0
124	RG01	751	0.15	100	184.73	0.00338	0	0
125	RG01	612	0.41	87.5	306.76	0.01537	0	0
126	RG01	141	0.61	50	371.18	0.01351	0	0
127	RG01	459	0.22	100	221.53	0.00702	0	0
128	RG01	347	0.19	25	207.36	0.01948	0	0
129	RG01	771	7.02	74.17	1263.14	0.006432	0	0
130	RG01	153	0.27	100	247.69	0.00942	0	0
131	RG01	610	0.78	100	420.42	0.00641	0	0
132	RG01	230	0.36	87.99	285	0.00878	0	0
133	RG01	63	0.25	50	239.27	0.01283	0	0
134	RG01	54	0.81	57.51	429.04	0.007476	0	0
135	RG01	353	0.69	25	395.66	0.03587	0	0
136	RG01	429	0.37	87.5	289.05	0.01763	0	0
137	RG01	643	0.57	100	359.93	0.0164	0	0
138	RG01	348	0.36	25	287.75	0.01526	0	0
139	RG01	477	0.88	100	448.08	0.00265	0	0
140	RG01	139	0.66	50	386.36	0.006744	0	0
141	RG01	231	1.02	100	481.56	0.01014	0	0
142	RG01	671	0.12	100	162.94	0.02858	0	0
143	RG01	354	0.33	25	272.3	0.01144	0	0
144	RG01	64	0.29	50	256.12	0.004128	0	0
145	RG01	352	0.25	25	240.21	0.01097	0	0
146	RG01	375	0.98	84.23	472.86	0.00132	0	0
147	RG01	669	0.55	100	352.46	0.02448	0	0
148	RG01	1034	2.17	100	702.05	0.005124	0	0
149	RG01	220	0.81	100	427.96	0.01092	0	0
150	RG01	332	0.19	78.99	206.34	0.004188	0	0
151	RG01	441	1.08	100	494.47	0.01466	0	0
152	RG01	351	0.3	25	261.58	0.01723	0	0
153	RG01	186	0.41	100	306.27	0.01036	0	0
154	RG01	749	0.53	100	347.02	0.0032	0	0
155	RG01	382	0.38	100	294.62	0.00101	0	0
156	RG01	68	0.49	50	334.63	0.00336	0	0
157	RG01	160	1.46	74.34	575.83	0.02422	0	0
158	RG01	1039	1.71	100	623.78	0.00236	0	0
159	RG01	350	0.1	25	152.97	0.01662	0	0
160	RG01	436	1.12	94.76	503.91	0.01981	0	0
161	RG01	349	0.59	25	366.91	0.0278	0	0
162	RG01	233	0.75	83.01	413.97	0.01221	0	0
163	RG01	214	0.45	100	319.14	0.01819	0	0
164	RG01	460	2.04	69.37	681.01	0.00487	0	0
165	RG01	646	0.44	100	316.43	0.00707	0	0
166	RG01	58	0.25	100	239.9	0.004236	0	0
167	RG01	464	1.56	100	594.64	0.00201	0	0
168	RG01	433	0.99	100	474.71	0.01362	0	0
169	RG01	66	0.84	50	435.95	0.005532	0	0
170	RG01	234	1.39	86.28	562.01	0.00891	0	0
171	RG01	99	1.15	50	511.49	0.01045	0	0
172	RG01	60	0.43	100	311.05	0.00492	0	0
173	RG01	952	0.36	100	286.75	0.01845	0	0
174	RG01	71	0.54	95.56	351	0.004464	0	0
175	RG01	355	1.55	63.14	593.51	0.05197	0	0
176	RG01	1051	2.48	82.03	750.42	0.02058	0	0
177	RG01	750	0.4	100	303.11	0.00259	0	0
178	RG01	428	1.36	87.5	555.32	0.01942	0	0
179	RG01	1048	1.55	100	593.27	0.003996	0	0
180	RG01	191	0.8	100	425.44	0.01005	0	0
181	RG01	1035	4.33	89.28	991.92	0.005052	0	0
182	RG01	747	0.83	100	435.29	0.00485	0	0
183	RG01	589	0.56	100	355.42	0.00631	0	0
184	RG01	746	1.09	100	496.64	0.00272	0	0
185	RG01	419	0.66	87.5	387.04	0.02249	0	0
186	RG01	103	1.14	99.16	509.68	0.00618	0	0
187	RG01	505	1.09	82.27	497.87	0.01632	0	0
188	RG01	588	0.58	87.5	361.94	0.01318	0	0
189	RG01	745	1.18	100	518.77	0.00219	0	0
190	RG01	674	0.63	100	377.46	0.00814	0	0
191	RG01	668	0.69	90.73	395.95	0.00412	0	0
192	RG01	83	1.48	74.09	579.53	0.008784	0	0
193	RG01	454	0.32	100	268.28	0.00568	0	0
194	RG01	976	0.95	100	465.16	0.00514	0	0
195	RG01	660	0.58	100	363.63	0.00796	0	0
196	RG01	259	3.45	93.73	885.52	0.01998	0	0
197	RG01	107	0.72	82.98	404.2	0.009204	0	0
198	RG01	168	0.21	87.5	217.89	0.00631	0	0
199	RG01	4	0.03	100	76.65	0.00704	0	0
200	RG01	448	0.11	100	155.08	0.00689	0	0
201	RG01	126	0.73	87.5	405.99	0.00774	0	0
202	RG01	651	0.72	87.5	403.7	0.01142	0	0
203	RG01	702	0.41	100	305.82	0.0025	0	0
204	RG01	689	0.55	100	353.02	0.00743	0	0
205	RG01	760	0.53	100	345.54	0.00189	0	0
206	RG01	756	1.21	85.55	524.52	0.00151	0	0
207	RG01	253	0.5	87.22	335.71	0.02717	0	0
208	RG01	649	0.55	87.5	353.94	0.01326	0	0
209	RG01	120	0.78	87.5	420.15	0.01214	0	0
210	RG01	688	0.68	100	392.75	0.00648	0	0
211	RG01	453	0.51	100	341.87	0.00409	0	0
212	RG01	194	0.65	87.5	383.01	0.00926	0	0
213	RG01	757	0.99	100	474.03	0.00166	0	0
214	RG01	446	0.43	100	314.01	0.00619	0	0
215	RG01	696	0.68	100	392.68	0.00708	0	0
216	RG01	201	2.46	87.5	747.63	0.00904	0	0
217	RG01	275	1.07	66.21	493.33	0.01747	0	0
218	RG01	132	0.71	87.5	401	0.00793	0	0
219	RG01	129	0.22	87.5	224.61	0.00704	0	0
220	RG01	744	0.33	100	275.91	0.00543	0	0
221	RG01	473	0.91	100	455.52	0.0061	0	0
222	RG01	125	0.74	100	409.79	0.01501	0	0
223	RG01	336	0.54	100	349.36	0.00206	0	0
224	RG01	687	0.44	100	317.88	0.00489	0	0
225	RG01	743	0.84	100	436.66	0.00849	0	0
226	RG01	131	0.75	87.5	412.58	0.01112	0	0
227	RG01	700	0.21	100	220.23	0.00525	0	0
228	RG01	242	1.54	100	590.76	0.00772	0	0
229	RG01	701	0.71	100	401.47	0.00347	0	0
230	RG01	648	1	100	476.08	0.0052	0	0
231	RG01	699	0.2	100	215.17	0.00868	0	0
232	RG01	471	0.72	100	405.37	0.00637	0	0
233	RG01	183	0.74	100	410.55	0.00672	0	0
234	RG01	698	0.15	100	182.07	0.00711	0	0
235	RG01	135	0.76	87.5	416.59	0.01004	0	0
236	RG01	102	0.37	87.5	290.99	0.01579	0	0
237	RG01	705	0.39	100	296.02	0.01296	0	0
238	RG01	311	0.99	100	474.53	0.00979	0	0
239	RG01	487	2.35	80.93	731.35	0.003144	0	0
240	RG01	111	0.82	87.5	430.58	0.00727	0	0
241	RG01	163	0.72	87.5	404.44	0.00886	0	0
242	RG01	1052	1.2	83.24	521.61	0.01276	0	0
243	RG01	742	1.68	100	617.84	0.01461	0	0
244	RG01	97	0.97	87.5	469.97	0.00405	0	0
245	RG01	706	0.2	100	213.95	0.00945	0	0
246	RG01	449	0.87	100	445.08	0.01244	0	0
247	RG01	656	0.26	100	242.69	0.00259	0	0
248	RG01	695	0.37	100	288.14	0.01084	0	0
249	RG01	691	1.05	100	488.26	0.00844	0	0
250	RG01	261	2.17	100	701.55	0.0137	0	0
251	RG01	498	0.69	100	394.91	0.00389	0	0
252	RG01	290	0.76	100	415.42	0.01642	0	0
253	RG01	164	1.18	87.5	518.1	0.0156	0	0
254	RG01	755	0.79	100	424.74	0.01307	0	0
255	RG01	704	0.17	100	196.66	0.01643	0	0
256	RG01	754	0.58	100	363.8	0.01492	0	0
257	RG01	110	0.92	87.5	457.49	0.00946	0	0
258	RG01	273	0.88	100	447.52	0.00588	0	0
259	RG01	115	0.52	100	343.87	0.02249	0	0
260	RG01	329	1.49	100	581.7	0.0131	0	0
261	RG01	703	0.38	100	292.83	0.01195	0	0
262	RG01	101	0.64	87.5	381.74	0.00969	0	0
263	RG01	512	0.55	100	354.65	0.006096	0	0
264	RG01	495	1.27	100	537.96	0.01224	0	0
265	RG01	116	0.62	100	374.43	0.006612	0	0
266	RG01	310	1.1	100	500.95	0.01924	0	0
267	RG01	92	0.76	87.5	415.81	0.00812	0	0
268	RG01	173	0.96	85.83	467.47	0.01787	0	0
269	RG01	109	1.08	97.61	494.47	0.00692	0	0
270	RG01	492	0.18	100	204.27	0.02169	0	0
271	RG01	518	1.75	100	631.25	0.004536	0	0
272	RG01	324	0.45	100	320.55	0.02303	0	0
273	RG01	286	0.42	100	307.37	0.01374	0	0
274	RG01	753	0.21	100	217.6	0.01934	0	0
275	RG01	122	0.19	100	206.4	0.00774	0	0
276	RG01	119	0.89	74	449.81	0.00786	0	0
277	RG01	697	0.16	100	191.31	0.02319	0	0
278	RG01	506	0.19	100	206.76	0.007212	0	0
279	RG01	43	1.55	100	592.94	0.008244	0	0
280	RG01	491	0.23	100	228.86	0.01724	0	0
281	RG01	260	0.91	50	455.05	0.02226	0	0
282	RG01	181	1.93	84.76	662.91	0.0063	0	0
283	RG01	169	1.06	74.87	490.15	0.01346	0	0
284	RG01	193	1.47	62.27	577.1	0.00528	0	0
285	RG01	395	0.74	100	408.87	0.01432	0	0
286	RG01	707	0.85	100	440.51	0.01096	0	0
287	RG01	752	0.58	100	363.35	0.01152	0	0
288	RG01	106	0.49	96.34	334.07	0.00817	0	0
289	RG01	322	0.31	100	264.58	0.02052	0	0
290	RG01	323	0.22	100	221.81	0.02317	0	0
291	RG01	962	0.94	62.38	463.17	0.02058	0	0
292	RG01	327	0.7	100	398.4	0.03038	0	0
293	RG01	192	2.08	65.48	688.2	0.00553	0	0
294	RG01	404	1.99	100	672.05	0.00921	0	0
295	RG01	325	0.49	100	334.7	0.01857	0	0
296	RG01	284	0.29	100	255.93	0.0303	0	0
297	RG01	403	2.54	100	759.75	0.01105	0	0
298	RG01	318	0.34	100	276.9	0.01585	0	0
299	RG01	582	0.59	100	365.1	0.02889	0	0
300	RG01	57	1.33	50	549.41	0.02089	0	0
301	RG01	65	0.61	100	372.06	0.00873	0	0
302	RG01	158	0.52	50.13	345.29	0.01736	0	0
303	RG01	396	0.69	100	394.81	0.02407	0	0
304	RG01	566	0.59	50	367.22	0.0231	0	0
305	RG01	584	0.71	100	401.22	0.01653	0	0
306	RG01	1	0.82	100	430.78	0.00451	0	0
307	RG01	933	0.75	50.08	412.07	0.00546	0	0
308	RG01	300	0.51	100	341.98	0.02569	0	0
309	RG01	391	0.93	100	459.73	0.02651	0	0
310	RG01	39	0.87	50	445.28	0.01979	0	0
311	RG01	556	0.65	99.19	383.18	0.01092	0	0
312	RG01	709	0.57	100	359.62	0.01156	0	0
313	RG01	46	0.76	50	416.05	0.02281	0	0
314	RG01	763	0.16	60.89	192.09	0.00166	0	0
315	RG01	928	0.64	41.68	380.03	0.01657	0	0
316	RG01	151	0.61	58.3	371.55	0.02436	0	0
317	RG01	170	0.13	53.26	168.89	0.00248	0	0
318	RG01	576	0.59	50	366.71	0.01883	0	0
319	RG01	762	1.21	100	525.26	0.00477	0	0
320	RG01	557	0.65	68.53	383.6	0.01685	0	0
321	RG01	713	1.2	83.54	522.16	0.01471	0	0
322	RG01	401	1.16	100	514.08	0.01487	0	0
323	RG01	553	0.88	100	445.95	0.02931	0	0
324	RG01	567	0.58	50	364.14	0.01975	0	0
325	RG01	569	0.78	50	420.74	0.02025	0	0
326	RG01	741	0.52	96.71	344.02	0.01847	0	0
327	RG01	720	0.8	89.59	426.23	0.01015	0	0
328	RG01	937	1.73	72.78	626.92	0.01686	0	0
329	RG01	25	0.43	50	313.93	0.02124	0	0
330	RG01	248	0.66	100	386.36	0.02394	0	0
331	RG01	714	0.15	87.5	182.83	0.01548	0	0
332	RG01	549	0.69	100	396.23	0.01919	0	0
333	RG01	726	1.11	82.96	501.9	0.0167	0	0
334	RG01	775	2.3	67.98	723.65	0.01406	0	0
335	RG01	342	0.72	100	403.55	0.01592	0	0
336	RG01	960	0.66	100	387.69	0.0128	0	0
337	RG01	712	1.2	39.77	522.85	0.03264	0	0
338	RG01	715	0.31	87.5	266.41	0.02719	0	0
339	RG01	550	0.59	100	365.03	0.01491	0	0
340	RG01	341	0.23	100	228.47	0.01148	0	0
341	RG01	897	0.5	100	337.56	0.01849	0	0
342	RG01	361	0.87	100	445.7	0.01212	0	0
343	RG01	340	0.51	100	339.12	0.01758	0	0
344	RG01	647	0.96	62.5	466.5	0.00516	0	0
345	RG01	647	1.08	63.63	494.9	0.00594	0	0
346	RG01	727	1.44	88.36	571.8	0.02051	0	0
347	RG01	360	1.38	100	559.24	0.01944	0	0
348	RG01	5	0.82	95.49	431.48	0.01084	0	0
349	RG01	730	1.91	57.31	659.47	0.04313	0	0
350	RG01	711	0.14	87.5	180.9	0.02672	0	0
351	RG01	369	0.57	82.4	358.99	0.01805	0	0
352	RG01	731	1.23	83.58	529.65	0.02326	0	0
353	RG01	725	0.42	84.46	309.19	0.01948	0	0
354	RG01	372	1.23	85.47	527.87	0.0142	0	0
355	RG01	543	0.98	100	472.55	0.02295	0	0
356	RG01	901	0.79	41.06	424.03	0.00499	0	0
357	RG01	359	0.66	100	388.2	0.02528	0	0
358	RG01	719	0.43	77.07	311.93	0.03396	0	0
359	RG01	710	0.74	43.91	410.27	0.0348	0	0
360	RG01	873	1.29	100	542.24	0.02171	0	0
361	RG01	633	0.42	100	309.84	0.01434	0	0
362	RG01	718	0.5	77.06	336.23	0.04246	0	0
363	RG01	174	0.55	57.11	353.91	0.0022	0	0
364	RG01	724	0.28	72	251.2	0.03426	0	0
365	RG01	367	0.06	87.5	119.16	0.0547	0	0
366	RG01	172	0.85	74.51	438.66	0.00558	0	0
367	RG01	365	0.13	87.5	171.83	0.01903	0	0
368	RG01	510	0.38	87.5	292.87	0.0119	0	0
369	RG01	508	0.61	90.44	372.02	0.0216	0	0
370	RG01	723	0.34	75	278.79	0.03042	0	0
371	RG01	716	0.42	78.64	307.69	0.04942	0	0
372	RG01	312	0.31	55.76	266.55	0.00405	0	0
373	RG01	520	0.25	87.5	237.07	0.01238	0	0
374	RG01	732	0.92	87.5	456.7	0.03367	0	0
375	RG01	519	0.15	87.5	182.28	0.02938	0	0
376	RG01	313	0.82	42.47	430.46	0.00573	0	0
377	RG01	721	0.5	21.79	336.53	0.04528	0	0
378	RG01	717	0.24	75	234.73	0.03281	0	0
379	RG01	517	0.09	87.5	146.54	0.01216	0	0
380	RG01	362	0.16	87.5	190.85	0.02839	0	0
381	RG01	533	0.57	100	359.9	0.03547	0	0
382	RG01	178	1.7	57.77	620.91	0.00556	0	0
383	RG01	516	1.54	75.34	592.11	0.03148	0	0
384	RG01	536	0.96	100	466.5	0.02414	0	0
385	RG01	738	0.4	87.5	302.24	0.02664	0	0
386	RG01	628	0.32	87.5	271.34	0.03137	0	0
387	RG01	894	0.59	100	365.44	0.0144	0	0
388	RG01	722	0.44	20.09	317.65	0.0408	0	0
389	RG01	521	0.28	87.5	250.2	0.01316	0	0
390	RG01	629	0.34	87.5	278.93	0.05583	0	0
391	RG01	537	0.55	91.98	354.93	0.03567	0	0
392	RG01	623	0.45	84.89	318.71	0.03794	0	0
393	RG01	859	1.72	100	625	0.01213	0	0
394	RG01	528	0.17	87.5	197.86	0.02154	0	0
395	RG01	729	0.25	87.5	238.38	0.0388	0	0
396	RG01	624	0.15	87.5	183.58	0.06133	0	0
397	RG01	641	0.55	100	352.28	0.00976	0	0
398	RG01	625	0.32	87.5	269.3	0.03734	0	0
399	RG01	737	0.53	87.5	346.45	0.04613	0	0
400	RG01	640	0.82	78.41	432.2	0.01212	0	0
401	RG01	736	0.53	87.5	345.43	0.03107	0	0
402	RG01	735	0.72	87.5	405.89	0.03236	0	0
403	RG01	639	0.62	87.34	375.47	0.01964	0	0
404	RG01	621	0.68	87.5	394.18	0.05123	0	0
405	RG01	638	0.44	87.5	317.77	0.0171	0	0
406	RG01	734	1.57	78.81	596.41	0.03571	0	0
407	RG01	618	0.68	65.71	391.76	0.05386	0	0
408	RG01	496	0.08	50	133.98	0.01956	0	0
409	RG01	496	0.25	50.84	236.06	0.03282	0	0
410	RG01	611	0.48	87.5	330.72	0.03098	0	0
411	RG01	908	2.03	75.87	678.62	0.00866	0	0
412	RG01	538	0.52	85.33	344.35	0.02453	0	0
413	RG01	620	0.5	87.5	337.82	0.04027	0	0
414	RG01	692	0.69	83.15	395.22	0.0264	0	0
415	RG01	681	0.53	70.6	346.37	0.03412	0	0
416	RG01	681	0.62	87.5	374.83	0.01352	0	0
417	RG01	921	0.8	100	426.35	0.01048	0	0
418	RG01	693	0.43	49.33	311.01	0.01627	0	0
419	RG01	609	1.34	87.5	552.34	0.04169	0	0
420	RG01	637	0.3	100	258.94	0.00621	0	0
421	RG01	694	0.51	57.9	341.87	0.00689	0	0
422	RG01	617	0.36	90.17	285.74	0.0398	0	0
423	RG01	616	0.59	57.05	367.63	0.06265	0	0
424	RG01	2	0.74	45.77	409.57	0.01584	0	0
425	RG01	733	0.74	72.42	410.55	0.01948	0	0
426	RG01	635	0.53	57.88	346.48	0.04248	0	0
427	RG01	636	0.4	100	301.66	0.00197	0	0
428	RG01	615	0.69	93.1	396.86	0.04348	0	0
429	RG01	213	1.4	45	563.32	0.01072	0	0
430	RG01	523	0.39	83.75	298.75	0.00114	0	0
431	RG01	679	0.51	87.5	340.73	0.02818	0	0
432	RG01	524	0.78	65.44	420.24	0.01423	0	0
433	RG01	614	0.16	65	193	0.03531	0	0
434	RG01	217	0.91	52.62	454.62	0.01588	0	0
435	RG01	522	0.46	100	324.15	0.01704	0	0
436	RG01	602	0.29	100	258.65	0.00606	0	0
437	RG01	539	1.01	100	479.22	0.01799	0	0
438	RG01	509	0.85	87.5	439.94	0.03144	0	0
439	RG01	684	0.41	87.5	304.71	0.01704	0	0
440	RG01	613	0.45	87.27	318.9	0.04833	0	0
441	RG01	530	0.28	87.5	250.15	0.02913	0	0
442	RG01	672	0.75	63.51	412.34	0.04158	0	0
443	RG01	208	0.57	45	359.1	0.02834	0	0
444	RG01	667	0.19	66.61	207.97	0.01821	0	0
445	RG01	634	1.17	100	514.98	0.03023	0	0
446	RG01	542	0.81	59.66	430.09	0.02188	0	0
447	RG01	683	0.61	87.5	371.79	0.02348	0	0
448	RG01	162	0.61	45	373.3	0.00568	0	0
449	RG01	680	0.6	72.02	370.71	0.01572	0	0
450	RG01	685	0.44	54.04	314.76	0.02162	0	0
451	RG01	541	0.84	64.82	436.18	0.02195	0	0
452	RG01	850	1.01	100	479.35	0.02743	0	0
453	RG01	666	0.89	61.54	449.81	0.02445	0	0
454	RG01	604	0.52	100	342.86	0.00737	0	0
455	RG01	190	0.73	43.32	407.98	0.04357	0	0
456	RG01	202	0.39	45	296.31	0.03443	0	0
457	RG01	293	0.1	45	152.4	0.024	0	0
458	RG01	159	0.66	45	387.81	0.00469	0	0
459	RG01	291	0.29	45	257.88	0.02764	0	0
460	RG01	673	0.92	100	456.75	0.03361	0	0
461	RG01	686	0.41	62	304.26	0.01295	0	0
462	RG01	497	0.36	64.77	285.96	0.01596	0	0
463	RG01	531	0.66	56.04	387.07	0.03562	0	0
464	RG01	494	0.59	50	365.24	0.02649	0	0
465	RG01	595	0.75	85.58	414.13	0.0107	0	0
466	RG01	200	0.49	45	335.26	0.04053	0	0
467	RG01	670	1.13	100	505.96	0.04016	0	0
468	RG01	529	0.41	57.5	306.96	0.02584	0	0
469	RG01	511	0.88	66.12	447.16	0.01901	0	0
470	RG01	514	0.28	51.5	252.04	0.02594	0	0
471	RG01	513	0.21	50	220.28	0.01333	0	0
472	RG01	134	1.9	45.02	657.57	0.00801	0	0
473	RG01	605	0.11	100	159.77	0.01102	0	0
474	RG01	676	0.58	100	363.35	0.02646	0	0
475	RG01	870	1.05	50	488.9	0.02203	0	0
476	RG01	515	0.21	50	218.92	0.0316	0	0
477	RG01	288	0.44	45	316.94	0.00958	0	0
478	RG01	525	1.01	100	478.98	0.01859	0	0
479	RG01	597	0.33	71.04	271.8	0.01024	0	0
480	RG01	287	0.33	45	275.27	0.02183	0	0
481	RG01	851	0.29	88.11	255.88	0.02237	0	0
482	RG01	500	0.96	56.47	468.19	0.0114	0	0
483	RG01	596	1.06	74.21	490.1	0.03024	0	0
484	RG01	599	0.28	100	252.93	0.0117	0	0
485	RG01	144	2.07	46.83	686.51	0.00668	0	0
486	RG01	532	1.44	100	571.75	0.02361	0	0
487	RG01	593	0.5	66.37	338.3	0.04279	0	0
488	RG01	535	0.12	50	166.73	0.01798	0	0
489	RG01	264	0.91	36.98	454.97	0.04343	0	0
490	RG01	156	0.89	45	450.83	0.03432	0	0
491	RG01	598	0.71	62.5	401.09	0.02276	0	0
492	RG01	197	0.17	45	195.9	0.01099	0	0
493	RG01	527	0.19	50	206.4	0.02952	0	0
494	RG01	544	1.41	100	565.71	0.01659	0	0
495	RG01	199	0.23	45	228.86	0.01167	0	0
496	RG01	526	0.15	100	185.2	0.02646	0	0
497	RG01	258	0.3	45	262.3	0.00401	0	0
498	RG01	678	0.71	62.5	402.65	0.08156	0	0
499	RG01	534	0.13	100	172.7	0.01961	0	0
500	RG01	501	0.8	78.38	427.64	0.01049	0	0
501	RG01	268	0.24	45	233.02	0.0209	0	0
502	RG01	690	0.95	52.99	464.87	0.00995	0	0
503	RG01	21	0.33	100	273.82	0.02778	0	0
504	RG01	594	0.61	100	373.26	0.01748	0	0
505	RG01	1016	18.05	19.66	2025.45	0.08334	0	0
506	RG01	1018	10.12	19.66	1516.54	0.08334	0	0
507	RG01	1006	8.99	70.41	1429.69	0.05718	0	0
508	RG01	996	1.52	70.41	588.15	0.05718	0	0
509	RG01	1015	1.63	70.41	608.6	0.06862	0	0
510	RG01	995	3.16	70.41	847.78	0.05718	0	0
511	RG01	1007	1.37	70.41	558.88	0.05718	0	0
512	RG01	1003	4.4	70.41	999.44	0.05718	0	0
513	RG01	999	0.73	70.41	407.06	0.05718	0	0
514	RG01	1005	3.64	70.41	910.16	0.05718	0	0
515	RG01	1004	2.1	70.41	691.61	0.05718	0	0
516	RG01	392	8.66	70.41	1402.72	0.05718	0	0
517	RG01	997	2.87	70.41	807.99	0.05718	0	0
518	RG01	1002	1.93	70.41	661.74	0.05718	0	0
519	RG01	1001	0.59	70.41	366.44	0.05718	0	0
520	RG01	994	2.14	70.41	697.78	0.05718	0	0
521	RG01	1000	0.57	70.41	361.07	0.05718	0	0
522	RG01	992	1.13	87.14	505.69	0.01687	0	0
523	RG01	211	0.41	24.27	304.51	0.01829	0	0
524	RG01	1011	0.52	74.41	344.38	0.00421	0	0
525	RG01	1009	0.59	56.66	365.96	0.00615	0	0
526	RG01	187	2.26	100	716.57	0.00817	0	0
527	RG01	11	0.78	100	420.74	0.01332	0	0
528	RG01	1010	0.8	56.66	425.26	0.00615	0	0
529	RG01	302	0.56	87.14	356.48	0.01687	0	0
530	RG01	346	0.33	100	275.45	0.02212	0	0
531	RG01	274	0.36	38.61	286.92	0.00357	0	0
532	RG01	289	1.15	63.61	510.93	0.01196	0	0
533	RG01	49	0.67	56.37	390.42	0.01806	0	0
534	RG01	1013	1.77	94.49	633.62	0.006708	0	0
535	RG01	991	0.53	100	346.23	0.02212	0	0
536	RG01	1012	0.86	94.49	441.13	0.006708	0	0
537	RG01	764	0.37	37.5	291.33	0.007716	0	0
538	RG01	479	0.49	100	334.89	0.00489	0	0
539	RG01	475	0.66	100	387.59	0.00304	0	0
540	RG01	959	0.61	100	371.95	0.02075	0	0
541	RG01	958	0.99	100	473.23	0.02075	0	0
542	RG01	957	2.63	100	773.27	0.02075	0	0
543	RG01	954	0.49	100	334.85	0.01819	0	0
544	RG01	956	1.38	100	559.8	0.02075	0	0
545	RG01	955	0.55	100	353.66	0.02075	0	0
546	RG01	590	0.3	100	260.86	0.01845	0	0
547	RG01	675	0.16	100	191.57	0.00363	0	0
548	RG01	447	0.47	100	325.46	0.00514	0	0
549	RG01	974	0.23	100	228.97	0.00489	0	0
550	RG01	975	0.32	100	271.62	0.00648	0	0
551	RG01	973	0.71	100	401.12	0.00772	0	0
552	RG01	972	0.63	100	378.02	0.00772	0	0
553	RG01	739	0.26	100	243.98	0.01034	0	0
554	RG01	988	0.78	100	419.76	0.0061	0	0
555	RG01	971	0.66	100	386.36	0.00772	0	0
556	RG01	946	0.75	85.83	413.97	0.01787	0	0
557	RG01	984	0.14	100	180.76	0.01152	0	0
558	RG01	493	0.24	87.5	235	0.01417	0	0
559	RG01	967	0.21	100	217.6	0.02319	0	0
560	RG01	987	0.65	100	385.13	0.01244	0	0
561	RG01	950	0.28	85.83	254.46	0.01787	0	0
562	RG01	276	0.81	62.38	430.12	0.02058	0	0
563	RG01	970	0.43	100	313.29	0.01307	0	0
564	RG01	951	0.69	97.61	397.02	0.00692	0	0
565	RG01	985	0.22	100	221.87	0.01152	0	0
566	RG01	945	0.41	85.83	304.43	0.01787	0	0
567	RG01	507	0.46	94.87	323.57	0.005028	0	0
568	RG01	949	0.36	97.61	287.1	0.00692	0	0
569	RG01	986	0.59	100	365.1	0.01096	0	0
570	RG01	968	1.01	100	479.69	0.01105	0	0
571	RG01	980	0.25	100	239.32	0.01224	0	0
572	RG01	963	0.21	50	220.28	0.02226	0	0
573	RG01	944	0.32	50	267.82	0.02089	0	0
574	RG01	979	1.28	100	539.79	0.01224	0	0
575	RG01	948	0.41	96.34	305.82	0.00817	0	0
576	RG01	981	0.75	100	412.95	0.01224	0	0
577	RG01	932	1.2	41.68	522.02	0.01657	0	0
578	RG01	982	0.44	100	317.88	0.01224	0	0
579	RG01	947	0.31	96.34	265.85	0.00817	0	0
580	RG01	983	0.6	100	369.09	0.01152	0	0
581	RG01	943	0.52	50	342.6	0.02089	0	0
582	RG01	930	0.25	41.68	239.11	0.01657	0	0
583	RG01	941	0.37	100	288.31	0.00873	0	0
584	RG01	978	1.69	100	620.12	0.01224	0	0
585	RG01	888	0.72	100	404.72	0.01156	0	0
586	RG01	929	0.58	41.68	363.94	0.01657	0	0
587	RG01	940	0.43	99.19	313.53	0.01092	0	0
588	RG01	961	0.56	62.38	357.39	0.02058	0	0
589	RG01	939	0.64	100	380.43	0.00873	0	0
590	RG01	889	0.52	100	344.82	0.01156	0	0
591	RG01	927	0.19	41.68	207.3	0.01657	0	0
592	RG01	887	1.1	39.77	500.27	0.03264	0	0
593	RG01	942	0.68	68.53	394.56	0.01685	0	0
594	RG01	977	0.59	100	365.34	0.0121	0	0
595	RG01	969	0.78	100	420.15	0.01105	0	0
596	RG01	938	0.52	68.53	342.31	0.01685	0	0
597	RG01	966	0.83	100	433.59	0.02931	0	0
598	RG01	885	0.17	100	198.75	0.0121	0	0
599	RG01	393	0.19	100	206.09	0.01003	0	0
600	RG01	884	0.35	100	283.77	0.0121	0	0
601	RG01	761	0.86	63.63	441.36	0.00594	0	0
602	RG01	553	0.36	100	286.4	0.02931	0	0
603	RG01	924	0.86	41.68	440.96	0.01657	0	0
604	RG01	255	0.42	100	308.1	0.0128	0	0
605	RG01	740	0.12	100	161.86	0.03141	0	0
606	RG01	708	0.13	100	172.41	0.0121	0	0
607	RG01	642	0.63	100	377.46	0.01849	0	0
608	RG01	964	0.53	100	348.6	0.01653	0	0
609	RG01	926	1.5	41.68	583.37	0.01657	0	0
610	RG01	166	1.61	41.68	605.54	0.01657	0	0
611	RG01	558	0.39	72.78	297.57	0.01686	0	0
612	RG01	900	0.87	41.06	444.27	0.00499	0	0
613	RG01	886	0.52	57.31	344.24	0.04313	0	0
614	RG01	886	0.02	57.31	70.18	0.04313	0	0
615	RG01	886	0.08	39.77	133.23	0.03264	0	0
616	RG01	886	0.12	39.77	168.45	0.03264	0	0
617	RG01	883	0.79	57.31	424.85	0.04313	0	0
618	RG01	931	0.75	41.68	413.85	0.01657	0	0
619	RG01	935	0.75	95.49	412.67	0.01084	0	0
620	RG01	171	0.52	41.06	343.11	0.00499	0	0
621	RG01	925	0.51	67.98	340.22	0.01406	0	0
622	RG01	965	0.39	100	297.83	0.01758	0	0
623	RG01	923	0.84	67.98	437.26	0.01406	0	0
624	RG01	882	2.14	57.31	697.35	0.04313	0	0
625	RG01	922	0.28	67.98	250.85	0.01406	0	0
626	RG01	358	0.91	100	454.12	0.02171	0	0
627	RG01	167	1.13	67.98	507.25	0.01406	0	0
628	RG01	936	0.29	95.49	258.65	0.01084	0	0
629	RG01	896	0.17	100	194.68	0.01434	0	0
630	RG01	903	2.38	57.77	735.85	0.00556	0	0
631	RG01	881	0.96	57.31	467.15	0.04313	0	0
632	RG01	905	0.74	57.77	410.18	0.00556	0	0
633	RG01	630	0.48	100	328.79	0.0144	0	0
634	RG01	898	0.36	63.63	285.88	0.00594	0	0
635	RG01	904	1.35	57.77	553.33	0.00556	0	0
636	RG01	874	0.55	100	353.13	0.01944	0	0
637	RG01	895	0.43	100	311.29	0.0144	0	0
638	RG01	893	0.28	100	254.02	0.0144	0	0
639	RG01	644	0.32	100	270.46	0.01213	0	0
640	RG01	880	0.72	57.31	404.81	0.04313	0	0
641	RG01	902	1.05	42.47	489.34	0.00573	0	0
642	RG01	891	1.05	100	489.54	0.00621	0	0
643	RG01	875	0.58	65.71	363.21	0.05386	0	0
644	RG01	876	0.33	56.87	275.91	0.03337	0	0
645	RG01	728	0.19	56.87	206.58	0.03337	0	0
646	RG01	915	1.05	100	487.8	0.01048	0	0
647	RG01	913	0.43	100	313.25	0.01048	0	0
648	RG01	907	0.82	57.77	430.73	0.00556	0	0
649	RG01	912	0.53	100	348.68	0.00594	0	0
650	RG01	916	0.16	100	188.48	0.01048	0	0
651	RG01	879	1.18	56.87	518.34	0.03337	0	0
652	RG01	910	0.05	100	104.4	0.01048	0	0
653	RG01	1054	0.21	100	217.54	0.01048	0	0
654	RG01	909	0.18	100	204.94	0.00594	0	0
655	RG01	920	0.1	100	154.11	0.01048	0	0
656	RG01	892	0.43	100	311.41	0.00621	0	0
657	RG01	919	0.18	100	203.16	0.01048	0	0
658	RG01	911	0.05	100	111.69	0.01048	0	0
659	RG01	917	0.47	100	327.6	0.01048	0	0
660	RG01	918	0.23	95.26	228.36	0.00458	0	0
661	RG01	872	0.06	75.34	116.4	0.03148	0	0
662	RG01	309	0.71	100	402.65	0.01048	0	0
663	RG01	890	0.42	100	307.94	0.00621	0	0
664	RG01	877	0.2	56.87	211.42	0.03337	0	0
665	RG01	878	0.42	56.87	307.9	0.03337	0	0
666	RG01	774	0.23	72.64	227.54	0.00688	0	0
667	RG01	184	0.12	100	166.13	0.00594	0	0
668	RG01	218	0.45	72.64	320.23	0.00688	0	0
669	RG01	858	0.51	100	338.82	0.01213	0	0
670	RG01	180	0.52	95.26	342.86	0.00458	0	0
671	RG01	855	0.81	100	429.56	0.01213	0	0
672	RG01	857	0.49	100	332.49	0.01213	0	0
673	RG01	182	0.34	75.87	277.89	0.00866	0	0
674	RG01	807	0.44	52.62	315.12	0.01588	0	0
675	RG01	811	0.3	75.87	260.38	0.00866	0	0
676	RG01	850	0.41	100	303.44	0.02743	0	0
677	RG01	854	0.64	100	381.18	0.01213	0	0
678	RG01	810	0.34	45	276.81	0.00568	0	0
679	RG01	852	0.92	100	456.07	0.02743	0	0
680	RG01	809	0.14	45	176.49	0.00568	0	0
681	RG01	600	0.31	100	263.96	0.02743	0	0
682	RG01	853	0.48	88.11	330.49	0.02237	0	0
683	RG01	808	0.32	45	268.47	0.04053	0	0
684	RG01	849	0.71	92.38	401.65	0.0292	0	0
685	RG01	206	0.27	45	245.97	0.03432	0	0
686	RG01	677	0.28	88.11	251.3	0.02237	0	0
687	RG01	871	0.55	50	354.4	0.02203	0	0
688	RG01	846	0.49	93.75	334.14	0.00844	0	0
689	RG01	663	0.66	92.38	387.43	0.0292	0	0
690	RG01	503	0.48	50	329.01	0.02203	0	0