[TITLE]
;;Project Title/Notes

[OPTIONS]
;;Option             Value
FLOW_UNITS           CMS
INFILTRATION         HORTON
FLOW_ROUTING         DYNWAVE
LINK_OFFSETS         DEPTH
MIN_SLOPE            0
ALLOW_PONDING        NO
SKIP_STEADY_STATE    NO

START_DATE           08/23/2013
START_TIME           00:00:00
REPORT_START_DATE    08/23/2013
REPORT_START_TIME    00:00:00
END_DATE             08/23/2013
END_TIME             05:00:00
SWEEP_START          01/01
SWEEP_END            12/31
DRY_DAYS             0
REPORT_STEP          00:01:00
WET_STEP             00:01:00
DRY_STEP             00:01:00
ROUTING_STEP         0:01:00 

INERTIAL_DAMPING     PARTIAL
NORMAL_FLOW_LIMITED  BOTH
FORCE_MAIN_EQUATION  D-W
VARIABLE_STEP        0.75
LENGTHENING_STEP     0
MIN_SURFAREA         1.14
MAX_TRIALS           8
HEAD_TOLERANCE       0.0015
SYS_FLOW_TOL         5
LAT_FLOW_TOL         5

[EVAPORATION]
;;Evap Data      Parameters
;;-------------- ----------------
CONSTANT         0
DRY_ONLY         NO

[RAINGAGES]
;;Gage           Format    Interval SCF      Source    
;;-------------- --------- ------ ------ ----------       

[SUBCATCHMENTS]
;;Subcatchment   Rain Gage        Outlet           Area     %Imperv  Width    %Slope   CurbLen  Snow Pack       
;;-------------- ---------------- ---------------- -------- -------- -------- -------- -------- ----------------    

[INFILTRATION]
;;Subcatchment   MaxRate    MinRate    Decay      DryTime    MaxInfil  
;;-------------- ---------- ---------- ---------- ---------- ----------       

[JUNCTIONS]
;;Junction       Invert     Dmax       Dinit      Dsurch     Aponded   
;;-------------- ---------- ---------- ---------- ---------- ----------
1         39.17         2         0         0         0 
2         29.46         2         0         0         0      

[OUTFALLS]
;;Outfall        Invert     Type       Stage Data       Gated   
;;-------------- ---------- ---------- ---------------- --------
3             23.3    FREE                        NO

[CONDUITS]
;;Conduit        From Node        To Node          Length     Roughness  InOffset   OutOffset  InitFlow   MaxFlow   
;;-------------- ---------------- ---------------- ---------- ---------- ---------- ---------- ---------- ----------
1         1         2         467         0.017         0         0         1.6         0
2         2         3         873         0.017         0         0         1.6         0

[XSECTIONS]											
;;Link	Shape	Geom1	Geom2	Geom3	Geom4	Barrels					
;;--------------	------------	----------------	----------	----------	----------	----------					
1	CIRCULAR	1.4	0	0	0	1					
2	CIRCULAR	1.4	0	0	0	1

[LOSSES]
;;Link           Kin        Kout       Kavg       Flap Gate  SeepRate  
;;-------------- ---------- ---------- ---------- ---------- ----------

[INFLOWS]
;;Node           Constituent      Time Series      Type     Mfactor  Sfactor  Baseline Pattern
;;-------------- ---------------- ---------------- -------- -------- -------- -------- --------
1         FLOW         TS-001         FLOW         1         1

[REPORT]
;;Reporting Options
INPUT      NO
CONTROLS   NO
SUBCATCHMENTS ALL
NODES ALL
LINKS ALL

[TAGS]

[MAP]
DIMENSIONS 201203.9500         442452.2500         203961.85         446418.35
Units      None

[COORDINATES]
;;Node           X-Coord            Y-Coord           
;;-------------- ------------------ ------------------
1         202085.71         444316.13
2         201689.8         444964.4
3         201911.26         444293.43  

[VERTICES]
;;Link           X-Coord            Y-Coord           
;;-------------- ------------------ ------------------

[Polygons]
;;Subcatchment   X-Coord            Y-Coord           
;;-------------- ------------------ ------------------   

[SYMBOLS]
;;Gage           X-Coord            Y-Coord           
;;-------------- ------------------ ------------------       

[FILES]
;; Using hotstart file
SAVE             HOTSTART         PCUW1D_HS

[TIMESERIES]
;;Time Series    Date       Time       Value     
;;-------------- ---------- ---------- ----------  
;
;
TS-001	0:00	1.6
TS-001	0:01	1.6
TS-001	0:02	1.6
TS-001	0:03	1.6
TS-001	0:04	1.6
TS-001	0:05	1.6
TS-001	0:06	1.6
TS-001	0:07	1.60822
TS-001	0:08	1.61644
TS-001	0:09	1.62502
TS-001	0:10	1.6336
TS-001	0:11	1.64416
TS-001	0:12	1.65472
TS-001	0:13	1.6633
TS-001	0:14	1.67188
TS-001	0:15	1.68046
TS-001	0:16	1.68904
TS-001	0:17	1.69696
TS-001	0:18	1.70488
TS-001	0:19	1.71148
TS-001	0:20	1.71808
TS-001	0:21	1.71808
TS-001	0:22	1.71808
TS-001	0:23	1.72864
TS-001	0:24	1.7392
TS-001	0:25	1.74778
TS-001	0:26	1.75636
TS-001	0:27	1.76494
TS-001	0:28	1.77352
TS-001	0:29	1.78606
TS-001	0:30	1.7986
TS-001	0:31	1.81312
TS-001	0:32	1.82764
TS-001	0:33	1.83622
TS-001	0:34	1.8448
TS-001	0:35	1.86592
TS-001	0:36	1.88704
TS-001	0:37	1.9042
TS-001	0:38	1.92136
TS-001	0:39	1.93786
TS-001	0:40	1.95436
TS-001	0:41	1.97152
TS-001	0:42	1.98868
TS-001	0:43	2.00518
TS-001	0:44	2.02168
TS-001	0:45	2.03884
TS-001	0:46	2.056
TS-001	0:47	2.07712
TS-001	0:48	2.09824
TS-001	0:49	2.12332
TS-001	0:50	2.1484
TS-001	0:51	2.17414
TS-001	0:52	2.19988
TS-001	0:53	2.22958
TS-001	0:54	2.25928
TS-001	0:55	2.29096
TS-001	0:56	2.32264
TS-001	0:57	2.34772
TS-001	0:58	2.3728
TS-001	0:59	2.4256
TS-001	1:00	2.4784
TS-001	1:01	2.52064
TS-001	1:02	2.56288
TS-001	1:03	2.61172
TS-001	1:04	2.66056
TS-001	1:05	2.71534
TS-001	1:06	2.77012
TS-001	1:07	2.82886
TS-001	1:08	2.8876
TS-001	1:09	2.947
TS-001	1:10	3.0064
TS-001	1:11	3.09088
TS-001	1:12	3.17536
TS-001	1:13	3.23476
TS-001	1:14	3.29416
TS-001	1:15	3.37204
TS-001	1:16	3.44992
TS-001	1:17	3.5344
TS-001	1:18	3.61888
TS-001	1:19	3.70336
TS-001	1:20	3.78784
TS-001	1:21	3.87232
TS-001	1:22	3.9568
TS-001	1:23	4.0624
TS-001	1:24	4.168
TS-001	1:25	4.25248
TS-001	1:26	4.33696
TS-001	1:27	4.42144
TS-001	1:28	4.50592
TS-001	1:29	4.5904
TS-001	1:30	4.67488
TS-001	1:31	4.75738
TS-001	1:32	4.83988
TS-001	1:33	4.91578
TS-001	1:34	4.99168
TS-001	1:35	5.07616
TS-001	1:36	5.16064
TS-001	1:37	5.22004
TS-001	1:38	5.27944
TS-001	1:39	5.34478
TS-001	1:40	5.41012
TS-001	1:41	5.47744
TS-001	1:42	5.54476
TS-001	1:43	5.60812
TS-001	1:44	5.67148
TS-001	1:45	5.7223
TS-001	1:46	5.77312
TS-001	1:47	5.83648
TS-001	1:48	5.89984
TS-001	1:49	5.95066
TS-001	1:50	6.00148
TS-001	1:51	6.0523
TS-001	1:52	6.10312
TS-001	1:53	6.14536
TS-001	1:54	6.1876
TS-001	1:55	6.21428
TS-001	1:56	6.24096
TS-001	1:57	6.261035
TS-001	1:58	6.28111
TS-001	1:59	6.28111
TS-001	2:00	6.28111
TS-001	2:01	6.261035
TS-001	2:02	6.24096
TS-001	2:03	6.21428
TS-001	2:04	6.1876
TS-001	2:05	6.14536
TS-001	2:06	6.10312
TS-001	2:07	6.0523
TS-001	2:08	6.00148
TS-001	2:09	5.95066
TS-001	2:10	5.89984
TS-001	2:11	5.83648
TS-001	2:12	5.77312
TS-001	2:13	5.7223
TS-001	2:14	5.67148
TS-001	2:15	5.60812
TS-001	2:16	5.54476
TS-001	2:17	5.47744
TS-001	2:18	5.41012
TS-001	2:19	5.34478
TS-001	2:20	5.27944
TS-001	2:21	5.22004
TS-001	2:22	5.16064
TS-001	2:23	5.07616
TS-001	2:24	4.99168
TS-001	2:25	4.91578
TS-001	2:26	4.83988
TS-001	2:27	4.75738
TS-001	2:28	4.67488
TS-001	2:29	4.5904
TS-001	2:30	4.50592
TS-001	2:31	4.42144
TS-001	2:32	4.33696
TS-001	2:33	4.25248
TS-001	2:34	4.168
TS-001	2:35	4.0624
TS-001	2:36	3.9568
TS-001	2:37	3.87232
TS-001	2:38	3.78784
TS-001	2:39	3.70336
TS-001	2:40	3.61888
TS-001	2:41	3.5344
TS-001	2:42	3.44992
TS-001	2:43	3.37204
TS-001	2:44	3.29416
TS-001	2:45	3.23476
TS-001	2:46	3.17536
TS-001	2:47	3.09088
TS-001	2:48	3.0064
TS-001	2:49	2.947
TS-001	2:50	2.8876
TS-001	2:51	2.82886
TS-001	2:52	2.77012
TS-001	2:53	2.71534
TS-001	2:54	2.66056
TS-001	2:55	2.61172
TS-001	2:56	2.56288
TS-001	2:57	2.52064
TS-001	2:58	2.4784
TS-001	2:59	2.4256
TS-001	3:00	2.3728
TS-001	3:01	2.34772
TS-001	3:02	2.32264
TS-001	3:03	2.29096
TS-001	3:04	2.25928
TS-001	3:05	2.22958
TS-001	3:06	2.19988
TS-001	3:07	2.17414
TS-001	3:08	2.1484
TS-001	3:09	2.12332
TS-001	3:10	2.09824
TS-001	3:11	2.07712
TS-001	3:12	2.056
TS-001	3:13	2.03884
TS-001	3:14	2.02168
TS-001	3:15	2.00518
TS-001	3:16	1.98868
TS-001	3:17	1.97152
TS-001	3:18	1.95436
TS-001	3:19	1.93786
TS-001	3:20	1.92136
TS-001	3:21	1.9042
TS-001	3:22	1.88704
TS-001	3:23	1.86592
TS-001	3:24	1.8448
TS-001	3:25	1.83622
TS-001	3:26	1.82764
TS-001	3:27	1.81312
TS-001	3:28	1.7986
TS-001	3:29	1.78606
TS-001	3:30	1.77352
TS-001	3:31	1.76494
TS-001	3:32	1.75636
TS-001	3:33	1.74778
TS-001	3:34	1.7392
TS-001	3:35	1.72864
TS-001	3:36	1.71808
TS-001	3:37	1.71808
TS-001	3:38	1.71808
TS-001	3:39	1.71148
TS-001	3:40	1.70488
TS-001	3:41	1.69696
TS-001	3:42	1.68904
TS-001	3:43	1.68046
TS-001	3:44	1.67188
TS-001	3:45	1.6633
TS-001	3:46	1.65472
TS-001	3:47	1.64416
TS-001	3:48	1.6336
TS-001	3:49	1.62502
TS-001	3:50	1.61644
TS-001	3:51	1.60822
TS-001	3:52	1.6
TS-001	3:53	1.6
TS-001	3:54	1.6
TS-001	3:55	1.6
TS-001	3:56	1.6
TS-001	3:57	1.6
TS-001	3:58	1.6
TS-001	3:59	1.6
TS-001	4:00	1.6
TS-001	4:01	1.6
TS-001	4:02	1.6
TS-001	4:03	1.6
TS-001	4:04	1.6
TS-001	4:05	1.6
TS-001	4:06	1.6
TS-001	4:07	1.6
TS-001	4:08	1.6
TS-001	4:09	1.6
TS-001	4:10	1.6
TS-001	4:11	1.6
TS-001	4:12	1.6
TS-001	4:13	1.6
TS-001	4:14	1.6
TS-001	4:15	1.6
TS-001	4:16	1.6
TS-001	4:17	1.6
TS-001	4:18	1.6
TS-001	4:19	1.6
TS-001	4:20	1.6
TS-001	4:21	1.6
TS-001	4:22	1.6
TS-001	4:23	1.6
TS-001	4:24	1.6
TS-001	4:25	1.6
TS-001	4:26	1.6
TS-001	4:27	1.6
TS-001	4:28	1.6
TS-001	4:29	1.6
TS-001	4:30	1.6
TS-001	4:31	1.6
TS-001	4:32	1.6
TS-001	4:33	1.6
TS-001	4:34	1.6
TS-001	4:35	1.6
TS-001	4:36	1.6
TS-001	4:37	1.6
TS-001	4:38	1.6
TS-001	4:39	1.6
TS-001	4:40	1.6
TS-001	4:41	1.6
TS-001	4:42	1.6
TS-001	4:43	1.6
TS-001	4:44	1.6
TS-001	4:45	1.6
TS-001	4:46	1.6
TS-001	4:47	1.6
TS-001	4:48	1.6
TS-001	4:49	1.6
TS-001	4:50	1.6
TS-001	4:51	1.6
TS-001	4:52	1.6
TS-001	4:53	1.6
TS-001	4:54	1.6
TS-001	4:55	1.6
TS-001	4:56	1.6
TS-001	4:57	1.6
TS-001	4:58	1.6
TS-001	4:59	1.6
TS-001	5:00	1.6

